DSS_Fox_chase/EV_loads_0.4.dss
New Load.ev_4 bus1=house_4.1.2 kV=0.24 kW=7.974 kvar=0.000 Phases=2 daily=Class_2_L2_Medium_EV_097_daily
New Load.ev_13 bus1=house_13.1.2 kV=0.24 kW=7.437 kvar=0.000 Phases=2 daily=Class_2_L2_Medium_EV_151_daily
New Load.ev_15 bus1=house_15.1.2 kV=0.24 kW=9.081 kvar=0.000 Phases=2 daily=Class_2_L2_Medium_EV_221_daily
New Load.ev_16 bus1=house_16.1.2 kV=0.24 kW=7.680 kvar=0.000 Phases=2 daily=Class_2_L2_Medium_EV_160_daily
New Load.ev_19 bus1=house_19.1.2 kV=0.24 kW=9.682 kvar=0.000 Phases=2 daily=Class_2_L2_Medium_EV_100_daily
New Load.ev_23 bus1=house_23.1.2 kV=0.24 kW=6.883 kvar=0.000 Phases=2 daily=Class_2_L2_Medium_EV_213_daily
New Load.ev_24 bus1=house_24.1.2 kV=0.24 kW=9.682 kvar=0.000 Phases=2 daily=Class_2_L2_Medium_EV_100_daily
New Load.ev_31 bus1=house_31.1.2 kV=0.24 kW=9.220 kvar=0.000 Phases=2 daily=Class_2_L2_Medium_EV_242_daily
New Load.ev_39 bus1=house_39.1.2 kV=0.24 kW=7.865 kvar=0.000 Phases=2 daily=Class_2_L2_Medium_EV_040_daily
New Load.ev_40 bus1=house_40.1.2 kV=0.24 kW=3.332 kvar=0.000 Phases=2 daily=Class_2_L2_Medium_EV_058_daily
New Load.ev_41 bus1=house_41.1.2 kV=0.24 kW=7.462 kvar=0.000 Phases=2 daily=Class_2_L2_Medium_EV_031_daily
New Load.ev_42 bus1=house_42.1.2 kV=0.24 kW=9.451 kvar=0.000 Phases=2 daily=Class_2_L2_Medium_EV_202_daily
New Load.ev_43 bus1=house_43.1.2 kV=0.24 kW=2.240 kvar=0.000 Phases=2 daily=Class_2_L2_Medium_EV_190_daily
New Load.ev_47 bus1=house_47.1.2 kV=0.24 kW=7.840 kvar=0.000 Phases=2 daily=Class_2_L2_Medium_EV_247_daily
New Load.ev_51 bus1=house_51.1.2 kV=0.24 kW=8.392 kvar=0.000 Phases=2 daily=Class_2_L2_Medium_EV_179_daily
New Load.ev_52 bus1=house_52.1.2 kV=0.24 kW=7.930 kvar=0.000 Phases=2 daily=Class_2_L2_Medium_EV_236_daily
New Load.ev_58 bus1=house_58.1.2 kV=0.24 kW=10.226 kvar=0.000 Phases=2 daily=Class_2_L2_Medium_EV_105_daily
New Load.ev_59 bus1=house_59.1.2 kV=0.24 kW=9.896 kvar=0.000 Phases=2 daily=Class_2_L2_Medium_EV_117_daily
New Load.ev_61 bus1=house_61.1.2 kV=0.24 kW=1.705 kvar=0.000 Phases=2 daily=Class_2_L2_Medium_EV_176_daily
New Load.ev_67 bus1=house_67.1.2 kV=0.24 kW=8.996 kvar=0.000 Phases=2 daily=Class_2_L2_Medium_EV_241_daily
New Load.ev_68 bus1=house_68.1.2 kV=0.24 kW=2.815 kvar=0.000 Phases=2 daily=Class_2_L2_Medium_EV_084_daily
New Load.ev_70 bus1=house_70.1.2 kV=0.24 kW=9.028 kvar=0.000 Phases=2 daily=Class_2_L2_Medium_EV_165_daily
New Load.ev_71 bus1=house_71.1.2 kV=0.24 kW=9.639 kvar=0.000 Phases=2 daily=Class_2_L2_Medium_EV_194_daily
New Load.ev_72 bus1=house_72.1.2 kV=0.24 kW=8.137 kvar=0.000 Phases=2 daily=Class_2_L2_Medium_EV_078_daily
New Load.ev_73 bus1=house_73.1.2 kV=0.24 kW=9.878 kvar=0.000 Phases=2 daily=Class_2_L2_Medium_EV_036_daily
New Load.ev_74 bus1=house_74.1.2 kV=0.24 kW=1.705 kvar=0.000 Phases=2 daily=Class_2_L2_Medium_EV_176_daily
New Load.ev_76 bus1=house_76.1.2 kV=0.24 kW=8.675 kvar=0.000 Phases=2 daily=Class_2_L2_Medium_EV_232_daily
New Load.ev_81 bus1=house_81.1.2 kV=0.24 kW=7.636 kvar=0.000 Phases=2 daily=Class_2_L2_Medium_EV_051_daily
New Load.ev_82 bus1=house_82.1.2 kV=0.24 kW=8.529 kvar=0.000 Phases=2 daily=Class_2_L2_Medium_EV_061_daily
New Load.ev_83 bus1=house_83.1.2 kV=0.24 kW=9.451 kvar=0.000 Phases=2 daily=Class_2_L2_Medium_EV_202_daily
New Load.ev_88 bus1=house_88.1.2 kV=0.24 kW=8.244 kvar=0.000 Phases=2 daily=Class_2_L2_Medium_EV_049_daily
New Load.ev_89 bus1=house_89.1.2 kV=0.24 kW=7.258 kvar=0.000 Phases=2 daily=Class_2_L2_Medium_EV_096_daily
New Load.ev_90 bus1=house_90.1.2 kV=0.24 kW=8.196 kvar=0.000 Phases=2 daily=Class_2_L2_Medium_EV_220_daily
New Load.ev_92 bus1=house_92.1.2 kV=0.24 kW=8.392 kvar=0.000 Phases=2 daily=Class_2_L2_Medium_EV_179_daily
New Load.ev_95 bus1=house_95.1.2 kV=0.24 kW=7.867 kvar=0.000 Phases=2 daily=Class_2_L2_Medium_EV_116_daily
New Load.ev_96 bus1=house_96.1.2 kV=0.24 kW=8.988 kvar=0.000 Phases=2 daily=Class_2_L2_Medium_EV_210_daily
New Load.ev_103 bus1=house_103.1.2 kV=0.24 kW=7.030 kvar=0.000 Phases=2 daily=Class_2_L2_Medium_EV_090_daily
New Load.ev_107 bus1=house_107.1.2 kV=0.24 kW=8.244 kvar=0.000 Phases=2 daily=Class_2_L2_Medium_EV_049_daily
New Load.ev_109 bus1=house_109.1.2 kV=0.24 kW=7.906 kvar=0.000 Phases=2 daily=Class_2_L2_Medium_EV_161_daily
New Load.ev_111 bus1=house_111.1.2 kV=0.24 kW=9.946 kvar=0.000 Phases=2 daily=Class_2_L2_Medium_EV_223_daily
New Load.ev_113 bus1=house_113.1.2 kV=0.24 kW=7.655 kvar=0.000 Phases=2 daily=Class_2_L2_Medium_EV_085_daily
New Load.ev_121 bus1=house_121.1.2 kV=0.24 kW=8.392 kvar=0.000 Phases=2 daily=Class_2_L2_Medium_EV_179_daily